Version 4
SHEET 1 880 1428
TEXT -56 40 Left 2 !***********************************************************\n*\n* PMEG2010AEH\n*\n* Nexperia\n*\n* 1 A very low VF MEGA Schottky barrier rectifiers\n* IFmax = 1A\n* VRmax = 20V\n* VFmax = 430mV   @ IF = 1A\n* IRmax = 200µA   @ VR = 20V\n* \n*\n*\n*\n* Package pinning does not match Spice model pinning.\n* Package: SOD123F\n*\n* Package Pin 1: Cathode\n* Package Pin 2: Anode\n*\n*\n* Extraction date (week/year): #\n* Simulator: SPICE2\n*\n***********************************************************\n*\n* The resistor R1 does not reflect \n* a physical device. Instead it\n* improves modeling in the reverse \n* mode of operation.\n*\n.SUBCKT PMEG2010AEH 1 2\nR1 1 2 1E+6\nD1 1 2 PMEG2010AEH\n*\n.MODEL PMEG2010AEH D\n+ IS = 5.409E-6\n+ N = 1.02\n+ BV = 22\n+ IBV = 5E-5\n+ RS = 0.05676\n+ CJO = 1.908E-10\n+ VJ = 0.3408\n+ M = 0.4863\n+ FC = 0.5\n+ EG = 0.69\n+ XTI = 2\n.ENDS\n*
